Version 4
SHEET 1 1124 680
WIRE 32 -288 0 -288
WIRE 128 -288 128 -336
WIRE 128 -288 112 -288
WIRE 192 -288 192 -336
WIRE 224 -288 192 -288
WIRE 336 -288 304 -288
WIRE 0 -192 0 -288
WIRE 176 -192 0 -192
WIRE 336 -192 336 -288
WIRE 336 -192 176 -192
WIRE 176 -160 176 -192
WIRE 224 -16 192 -16
WIRE 672 -16 288 -16
WIRE 80 160 -64 160
WIRE 192 160 192 -16
WIRE 192 160 160 160
WIRE 224 160 192 160
WIRE 368 160 304 160
WIRE 528 160 368 160
WIRE 672 176 672 -16
WIRE 672 176 592 176
WIRE 1024 176 672 176
WIRE 528 192 480 192
WIRE 368 224 368 160
WIRE 672 224 672 176
WIRE 480 320 480 192
WIRE 672 320 672 304
WIRE 672 320 480 320
WIRE 672 352 672 320
WIRE -224 368 -224 320
WIRE 368 368 368 288
WIRE -224 496 -224 448
WIRE 672 512 672 432
FLAG 368 368 0
FLAG -64 160 Input
FLAG 1024 176 Output
FLAG 672 512 0
FLAG 176 -160 0
FLAG 128 -336 V+
FLAG 192 -336 V-
FLAG 560 208 V+
FLAG 560 144 V-
FLAG -224 496 0
FLAG -224 320 Input
SYMBOL res 176 144 R90
WINDOW 0 0 56 VBottom 2
WINDOW 3 32 56 VTop 2
SYMATTR InstName R1
SYMATTR Value 1.8k
SYMBOL res 320 144 R90
WINDOW 0 0 56 VBottom 2
WINDOW 3 32 56 VTop 2
SYMATTR InstName R2
SYMATTR Value 1.8k
SYMBOL cap 288 -32 R90
WINDOW 0 0 32 VBottom 2
WINDOW 3 32 32 VTop 2
SYMATTR InstName C1
SYMATTR Value 18n
SYMBOL cap 384 288 R180
WINDOW 0 24 56 Left 2
WINDOW 3 24 8 Left 2
SYMATTR InstName C2
SYMATTR Value 18n
SYMBOL OpAmps\\opamp2 560 240 M180
SYMATTR InstName U1
SYMATTR Value LM358
SYMBOL res 656 208 R0
SYMATTR InstName Rf
SYMATTR Value 5.86k
SYMBOL res 656 336 R0
SYMATTR InstName Rg
SYMATTR Value 10k
SYMBOL voltage 128 -288 R90
WINDOW 0 -32 56 VBottom 2
WINDOW 3 32 56 VTop 2
WINDOW 123 0 0 Left 0
WINDOW 39 0 0 Left 0
SYMATTR InstName V1
SYMATTR Value 15
SYMBOL voltage 208 -288 R270
WINDOW 0 32 56 VTop 2
WINDOW 3 -32 56 VBottom 2
WINDOW 123 0 0 Left 0
WINDOW 39 0 0 Left 0
SYMATTR InstName V2
SYMATTR Value -15
SYMBOL voltage -224 352 R0
WINDOW 123 0 0 Left 0
WINDOW 39 0 0 Left 0
SYMATTR InstName V3
SYMATTR Value SINE(0 1 20k)
TEXT 112 368 Left 2 !.lib lm358.lib
TEXT -256 536 Left 2 !.tran 0.0005
